<?xml version="1.0" encoding="UTF-8"?>

<!-- generated on 10/06/15 14:17:06 by SUMO netconvert Version 0.23.0
<?xml version="1.0" encoding="UTF-8"?>

<configuration xmlns:xsi="http://www.w3.org/2001/XMLSchema-instance" xsi:noNamespaceSchemaLocation="http://sumo.dlr.de/xsd/netconvertConfiguration.xsd">

    <input>
        <node-files value="platoon.nod.xml"/>
        <edge-files value="platoon.edg.xml"/>
        <connection-files value="platoon.con.xml"/>
        <type-files value="platoon.typ.xml"/>
    </input>

    <output>
        <output-file value="platoon.net.xml"/>
    </output>

    <processing>
        <no-turnarounds value="true"/>
    </processing>

    <report>
        <verbose value="true"/>
    </report>

</configuration>
-->

<net version="0.13" xmlns:xsi="http://www.w3.org/2001/XMLSchema-instance" xsi:noNamespaceSchemaLocation="http://sumo.dlr.de/xsd/net_file.xsd">

    <location netOffset="4000.00,-100.00" convBoundary="0.00,0.00,4000.00,0.00" origBoundary="-4000.00,100.00,0.00,100.00" projParameter="!"/>

 

    <edge id="D2" from="91" to="911" priority="3" type="a">
      <lane id="D2_0" index="0" speed="13.89" length="3990.00" shape="0.00,-4.95 3990.00,-4.95"/>
    </edge>

  
    <junction id="91" type="unregulated" x="0.00" y="0.00" incLanes="" intLanes="" shape="-0.00,-0.05 -0.00,-6.55"/>

 <junction id="911" type="priority" x="3990.00" y="0.00" incLanes="D2_0" intLanes="" shape="3990.00,-0.05 3990.00,-6.55">

        <request index="0" response="0" foes="0" cont="0"/>
     </junction>

    
</net>
