<?xml version="1.0" encoding="UTF-8"?>

<!-- generated on 10/06/15 14:17:06 by SUMO netconvert Version 0.23.0
<?xml version="1.0" encoding="UTF-8"?>

<configuration xmlns:xsi="http://www.w3.org/2001/XMLSchema-instance" xsi:noNamespaceSchemaLocation="http://sumo.dlr.de/xsd/netconvertConfiguration.xsd">

    <input>
        <node-files value="platoon.nod.xml"/>
        <edge-files value="platoon.edg.xml"/>
        <connection-files value="platoon.con.xml"/>
        <type-files value="platoon.typ.xml"/>
    </input>

    <output>
        <output-file value="platoon.net.xml"/>
    </output>

    <processing>
        <no-turnarounds value="true"/>
    </processing>

    <report>
        <verbose value="true"/>
    </report>

</configuration>
-->

<net version="0.13" xmlns:xsi="http://www.w3.org/2001/XMLSchema-instance" xsi:noNamespaceSchemaLocation="http://sumo.dlr.de/xsd/net_file.xsd">

    <location netOffset="4000.00,-100.00" convBoundary="0.00,0.00,4000.00,0.00" origBoundary="-4000.00,100.00,0.00,100.00" projParameter="!"/>

    <edge id=":911_0" function="internal">
        <lane id=":911_0_0" index="0" speed="13.89" length="1.70" shape="3990.00,-4.95 3990.00,-4.95"/>
        <lane id=":911_0_1" index="1" speed="13.89" length="1.70" shape="3990.00,-4.95 3990.00,-1.65"/>
    </edge>

    <edge id="D2" from="91" to="911" priority="3" type="a">
        <lane id="D2_0" index="0" speed="13.89" length="3990.00" shape="0.00,-4.95 3990.00,-4.95"/>
        <lane id="D2_1" index="1" speed="13.89" length="3990.00" shape="0.00,-1.65 3990.00,-1.65"/>
    </edge>
    <edge id="L2" from="911" to="1" priority="3" type="a">
        <lane id="L2_0" index="0" speed="13.89" length="10.00" shape="3990.00,-4.95 4000.00,-4.95"/>
        <lane id="L2_1" index="1" speed="13.89" length="10.00" shape="3990.00,-1.65 4000.00,-1.65"/>
    </edge>

    <junction id="1" type="unregulated" x="4000.00" y="0.00" incLanes="L2_0 L2_1" intLanes="" shape="4000.00,-6.55 4000.00,-0.05"/>
    <junction id="91" type="unregulated" x="0.00" y="0.00" incLanes="" intLanes="" shape="-0.00,-0.05 -0.00,-6.55"/>
    <junction id="911" type="priority" x="3990.00" y="0.00" incLanes="D2_0 D2_1" intLanes=":911_0_0 :911_0_1" shape="3990.00,-0.05 3990.00,-6.55 3990.00,-0.05">
        <request index="0" response="00" foes="00" cont="0"/>
        <request index="1" response="00" foes="00" cont="0"/>
    </junction>

    <connection from="D2" to="L2" fromLane="0" toLane="0" via=":911_0_0" dir="s" state="M"/>
    <connection from="D2" to="L2" fromLane="0" toLane="1" via=":911_0_1" dir="s" state="M"/>

    <connection from=":911_0" to="L2" fromLane="0" toLane="0" dir="s" state="M"/>
    <connection from=":911_0" to="L2" fromLane="1" toLane="1" dir="s" state="M"/>

</net>
