<?xml version="1.0" encoding="UTF-8"?>
<connections xmlns:xsi="http://www.w3.org/2001/XMLSchema-instance" xsi:noNamespaceSchemaLocation="http://sumo.dlr.de/xsd/connections_file.xsd">
    <connection from="D2" to="L2" fromLane="0" toLane="0"/>
    <connection from="D2" to="L2" fromLane="0" toLane="1"/>
</connections>
