<?xml version="1.0" encoding="UTF-8"?>
<nodes xmlns:xsi="http://www.w3.org/2001/XMLSchema-instance" xsi:noNamespaceSchemaLocation="http://sumo.dlr.de/xsd/nodes_file.xsd">
   <node id="91" x="-4000.0" y="100.0" />
   
   <node id="911" x="-10.0" y="+100.0" />
  
   <node id="1" x="0.0" y="+100.0" /> 
   
</nodes>